functions/OneTimeScripts/validationAgainstOpenDSS_MATLAB/ieee123_1ph_created/results/pv000_batt010/powers10.csv
Element, Terminal, P(kW), Q(kvar),  P_Normal, Q_Normal, P_Emergency, Q_Emergency
"Line.L115"             ,   1,       922.5,       306.0,         5.6,         1.9,         0.0,         0.0
"Line.L115"             ,   2,      -918.7,      -298.3
"Line.L1"               ,   1,         5.2,         2.6,         0.0,         0.0,         0.0,         0.0
"Line.L1"               ,   2,        -5.2,        -2.6
"Line.L2"               ,   1,        25.9,        13.0,         0.0,         0.0,         0.0,         0.0
"Line.L2"               ,   2,       -25.9,       -13.0
"Line.L3"               ,   1,       877.3,       277.6,         0.0,         0.0,         0.0,         0.0
"Line.L3"               ,   2,      -874.7,      -272.3
"Line.L4"               ,   1,        10.4,         5.2,         0.0,         0.0,         0.0,         0.0
"Line.L4"               ,   2,       -10.4,        -5.2
"Line.L5"               ,   1,        15.5,         7.8,         0.0,         0.0,         0.0,         0.0
"Line.L5"               ,   2,       -15.5,        -7.8
"Line.L6"               ,   1,        10.4,         5.2,         0.0,         0.0,         0.0,         0.0
"Line.L6"               ,   2,       -10.4,        -5.2
"Line.L7"               ,   1,       869.5,       269.7,         0.0,         0.0,         0.0,         0.0
"Line.L7"               ,   2,      -867.9,      -266.3
"Line.L8"               ,   1,         5.2,         2.6,         0.0,         0.0,         0.0,         0.0
"Line.L8"               ,   2,        -5.2,        -2.6
"Line.L9"               ,   1,        25.9,        13.0,         0.0,         0.0,         0.0,         0.0
"Line.L9"               ,   2,       -25.9,       -13.0
"Line.L10"              ,   1,       836.8,       250.7,         0.0,         0.0,         0.0,         0.0
"Line.L10"              ,   2,      -834.4,      -246.0
"Line.L11"              ,   1,        15.5,         7.8,         0.0,         0.0,         0.0,         0.0
"Line.L11"              ,   2,       -15.5,        -7.8
"Line.L12"              ,   1,        25.9,        13.0,         0.0,         0.0,         0.0,         0.0
"Line.L12"              ,   2,       -25.9,       -13.0
"Line.L13"              ,   1,       290.4,       171.5,         0.0,         0.0,         0.0,         0.0
"Line.L13"              ,   2,      -289.4,      -169.6
"Line.L14"              ,   1,        10.4,         5.2,         0.0,         0.0,         0.0,         0.0
"Line.L14"              ,   2,       -10.4,        -5.2
"Line.L15"              ,   1,         5.2,         2.6,         0.0,         0.0,         0.0,         0.0
"Line.L15"              ,   2,        -5.2,        -2.6
"Line.L16"              ,   1,        10.4,         5.2,         0.0,         0.0,         0.0,         0.0
"Line.L16"              ,   2,       -10.4,        -5.2
"Line.L17"              ,   1,         5.2,         2.6,         0.0,         0.0,         0.0,         0.0
"Line.L17"              ,   2,        -5.2,        -2.6
"Line.L18"              ,   1,        20.7,        10.4,         0.0,         0.0,         0.0,         0.0
"Line.L18"              ,   2,       -20.7,       -10.4
"Line.L19"              ,   1,        72.6,        36.3,         0.0,         0.0,         0.0,         0.0
"Line.L19"              ,   2,       -72.6,       -36.3
"Line.L20"              ,   1,        10.4,         5.2,         0.0,         0.0,         0.0,         0.0
"Line.L20"              ,   2,       -10.4,        -5.2
"Line.L21"              ,   1,        10.4,         5.2,         0.0,         0.0,         0.0,         0.0
"Line.L21"              ,   2,       -10.4,        -5.2
"Line.L22"              ,   1,        62.2,        31.1,         0.0,         0.0,         0.0,         0.0
"Line.L22"              ,   2,       -62.2,       -31.1
"Line.L23"              ,   1,        10.4,         5.2,         0.0,         0.0,         0.0,         0.0
"Line.L23"              ,   2,       -10.4,        -5.2
"Line.L24"              ,   1,        51.8,        25.9,         0.0,         0.0,         0.0,         0.0
"Line.L24"              ,   2,       -51.8,       -25.9
"Line.L25"              ,   1,        20.7,        10.4,         0.0,         0.0,         0.0,         0.0
"Line.L25"              ,   2,       -20.7,       -10.4
"Line.L26"              ,   1,        31.1,        15.5,         0.0,         0.0,         0.0,         0.0
"Line.L26"              ,   2,       -31.1,       -15.5
"Line.L27"              ,   1,        10.4,         5.2,         0.0,         0.0,         0.0,         0.0
"Line.L27"              ,   2,       -10.4,        -5.2
"Line.L28"              ,   1,        10.4,         5.2,         0.0,         0.0,         0.0,         0.0
"Line.L28"              ,   2,       -10.4,        -5.2
"Line.L29"              ,   1,        10.4,         5.2,         0.0,         0.0,         0.0,         0.0
"Line.L29"              ,   2,       -10.4,        -5.2
"Line.L30"              ,   1,        20.7,        10.4,         0.0,         0.0,         0.0,         0.0
"Line.L30"              ,   2,       -20.7,       -10.4
"Line.L31"              ,   1,        10.4,         5.2,         0.0,         0.0,         0.0,         0.0
"Line.L31"              ,   2,       -10.4,        -5.2
"Line.L32"              ,   1,        -0.0,        -0.0,         0.0,         0.0,         0.0,         0.0
"Line.L32"              ,   2,         0.0,         0.0
"Line.L33"              ,   1,         5.2,         2.6,         0.0,         0.0,         0.0,         0.0
"Line.L33"              ,   2,        -5.2,        -2.6
"Line.L34"              ,   1,        15.5,         7.8,         0.0,         0.0,         0.0,         0.0
"Line.L34"              ,   2,       -15.5,        -7.8
"Line.L35"              ,   1,        20.7,        10.4,         0.0,         0.0,         0.0,         0.0
"Line.L35"              ,   2,       -20.7,       -10.4
"Line.L36"              ,   1,       164.8,       106.9,         0.0,         0.0,         0.0,         0.0
"Line.L36"              ,   2,      -164.7,      -106.7
"Line.L37"              ,   1,        10.4,         5.2,         0.0,         0.0,         0.0,         0.0
"Line.L37"              ,   2,       -10.4,        -5.2
"Line.L38"              ,   1,        10.4,         5.2,         0.0,         0.0,         0.0,         0.0
"Line.L38"              ,   2,       -10.4,        -5.2
"Line.L39"              ,   1,         5.2,         2.6,         0.0,         0.0,         0.0,         0.0
"Line.L39"              ,   2,        -5.2,        -2.6
"Line.L40"              ,   1,         5.2,         2.6,         0.0,         0.0,         0.0,         0.0
"Line.L40"              ,   2,        -5.2,        -2.6
"Line.L41"              ,   1,       159.5,       104.1,         0.0,         0.0,         0.0,         0.0
"Line.L41"              ,   2,      -159.4,      -103.9
"Line.L42"              ,   1,        10.4,         5.2,         0.0,         0.0,         0.0,         0.0
"Line.L42"              ,   2,       -10.4,        -5.2
"Line.L43"              ,   1,       143.9,        96.1,         0.0,         0.0,         0.0,         0.0
"Line.L43"              ,   2,      -143.8,       -96.0
"Line.L44"              ,   1,        10.4,         5.2,         0.0,         0.0,         0.0,         0.0
"Line.L44"              ,   2,       -10.4,        -5.2
"Line.L45"              ,   1,       133.5,        90.8,         0.0,         0.0,         0.0,         0.0
"Line.L45"              ,   2,      -133.4,       -90.7
"Line.L46"              ,   1,         5.2,         2.6,         0.0,         0.0,         0.0,         0.0
"Line.L46"              ,   2,        -5.2,        -2.6
"Line.L47"              ,   1,        54.4,        38.9,         0.0,         0.0,         0.0,         0.0
"Line.L47"              ,   2,       -54.4,       -38.8
"Line.L48"              ,   1,        51.8,        32.4,         0.0,         0.0,         0.0,         0.0
"Line.L48"              ,   2,       -51.8,       -32.4
"Line.L49"              ,   1,        15.5,         7.8,         0.0,         0.0,         0.0,         0.0
"Line.L49"              ,   2,       -15.5,        -7.8
"Line.L50"              ,   1,         5.2,         2.6,         0.0,         0.0,         0.0,         0.0
"Line.L50"              ,   2,        -5.2,        -2.6
"Line.L51"              ,   1,         0.0,        -0.0,         0.0,         0.0,         0.0,         0.0
"Line.L51"              ,   2,         0.0,         0.0
"Line.L52"              ,   1,       506.7,        54.0,         0.0,         0.0,         0.0,         0.0
"Line.L52"              ,   2,      -506.1,       -52.9
"Line.L53"              ,   1,       495.8,        47.7,         0.0,         0.0,         0.0,         0.0
"Line.L53"              ,   2,      -495.4,       -47.1
"Line.L54"              ,   1,        10.4,         5.2,         0.0,         0.0,         0.0,         0.0
"Line.L54"              ,   2,       -10.4,        -5.2
"Line.L55"              ,   1,       485.1,        41.9,         0.0,         0.0,         0.0,         0.0
"Line.L55"              ,   2,      -484.2,       -40.1
"Line.L56"              ,   1,         5.2,         2.6,         0.0,         0.0,         0.0,         0.0
"Line.L56"              ,   2,        -5.2,        -2.6
"Line.L57"              ,   1,        10.4,         5.2,         0.0,         0.0,         0.0,         0.0
"Line.L57"              ,   2,       -10.4,        -5.2
"Line.L58"              ,   1,       473.9,        34.9,         0.0,         0.0,         0.0,         0.0
"Line.L58"              ,   2,      -472.1,       -31.3
"Line.L59"              ,   1,         5.2,         2.6,         0.0,         0.0,         0.0,         0.0
"Line.L59"              ,   2,        -5.2,        -2.6
"Line.L60"              ,   1,         0.0,        -0.0,         0.0,         0.0,         0.0,         0.0
"Line.L60"              ,   2,        -0.0,         0.0
"Line.L61"              ,   1,        96.2,        54.4,         0.0,         0.0,         0.0,         0.0
"Line.L61"              ,   2,       -96.1,       -54.4
"Line.L62"              ,   1,        85.7,        49.2,         0.0,         0.0,         0.0,         0.0
"Line.L62"              ,   2,       -85.6,       -49.2
"Line.L63"              ,   1,        75.3,        44.0,         0.0,         0.0,         0.0,         0.0
"Line.L63"              ,   2,       -75.2,       -44.0
"Line.L64"              ,   1,        55.8,        34.9,         0.0,         0.0,         0.0,         0.0
"Line.L64"              ,   2,       -55.7,       -34.9
"Line.L65"              ,   1,        19.4,         9.0,         0.0,         0.0,         0.0,         0.0
"Line.L65"              ,   2,       -19.4,        -9.1
"Line.L66"              ,   1,        31.1,        15.6,         0.0,         0.0,         0.0,         0.0
"Line.L66"              ,   2,       -31.1,       -15.6
"Line.L67"              ,   1,       225.0,       -99.6,         0.0,         0.0,         0.0,         0.0
"Line.L67"              ,   2,      -224.8,       100.0
"Line.L68"              ,   1,       114.1,        57.2,         0.0,         0.0,         0.0,         0.0
"Line.L68"              ,   2,      -114.1,       -57.1
"Line.L69"              ,   1,        25.9,        13.0,         0.0,         0.0,         0.0,         0.0
"Line.L69"              ,   2,       -25.9,       -13.0
"Line.L70"              ,   1,        15.5,         7.8,         0.0,         0.0,         0.0,         0.0
"Line.L70"              ,   2,       -15.5,        -7.8
"Line.L71"              ,   1,        10.4,         5.2,         0.0,         0.0,         0.0,         0.0
"Line.L71"              ,   2,       -10.4,        -5.2
"Line.L72"              ,   1,        31.1,        15.6,         0.0,         0.0,         0.0,         0.0
"Line.L72"              ,   2,       -31.1,       -15.5
"Line.L73"              ,   1,       193.7,      -115.5,         0.0,         0.0,         0.0,         0.0
"Line.L73"              ,   2,      -193.6,       115.8
"Line.L74"              ,   1,        20.7,        10.4,         0.0,         0.0,         0.0,         0.0
"Line.L74"              ,   2,       -20.7,       -10.4
"Line.L75"              ,   1,        10.4,         5.2,         0.0,         0.0,         0.0,         0.0
"Line.L75"              ,   2,       -10.4,        -5.2
"Line.L76"              ,   1,        62.7,      -150.9,         0.0,         0.0,         0.0,         0.0
"Line.L76"              ,   2,       -62.6,       151.2
"Line.L77"              ,   1,        67.4,       -11.4,         0.0,         0.0,         0.0,         0.0
"Line.L77"              ,   2,       -67.4,        11.5
"Line.L78"              ,   1,        52.2,      -156.4,         0.0,         0.0,         0.0,         0.0
"Line.L78"              ,   2,       -52.2,       156.4
"Line.L79"              ,   1,        10.4,         5.2,         0.0,         0.0,         0.0,         0.0
"Line.L79"              ,   2,       -10.4,        -5.2
"Line.L80"              ,   1,        41.8,      -161.6,         0.0,         0.0,         0.0,         0.0
"Line.L80"              ,   2,       -41.7,       161.9
"Line.L81"              ,   1,        31.3,      -167.1,         0.0,         0.0,         0.0,         0.0
"Line.L81"              ,   2,       -31.3,       167.2
"Line.L82"              ,   1,        15.7,      -175.0,         0.0,         0.0,         0.0,         0.0
"Line.L82"              ,   2,       -15.6,       175.2
"Line.L83"              ,   1,        15.6,         7.8,         0.0,         0.0,         0.0,         0.0
"Line.L83"              ,   2,       -15.5,        -7.8
"Line.L84"              ,   1,         5.3,      -180.3,         0.0,         0.0,         0.0,         0.0
"Line.L84"              ,   2,        -5.2,       180.5
"Line.L85"              ,   1,        10.4,         5.2,         0.0,         0.0,         0.0,         0.0
"Line.L85"              ,   2,       -10.4,        -5.2
"Line.L86"              ,   1,        62.2,       -14.1,         0.0,         0.0,         0.0,         0.0
"Line.L86"              ,   2,       -62.2,        14.1
"Line.L87"              ,   1,        10.4,        -9.9,         0.0,         0.0,         0.0,         0.0
"Line.L87"              ,   2,       -10.4,         9.9
"Line.L88"              ,   1,        41.5,        -9.4,         0.0,         0.0,         0.0,         0.0
"Line.L88"              ,   2,       -41.5,         9.4
"Line.L89"              ,   1,        10.4,        -9.9,         0.0,         0.0,         0.0,         0.0
"Line.L89"              ,   2,       -10.4,         9.9
"Line.L90"              ,   1,        31.1,         0.5,         0.0,         0.0,         0.0,         0.0
"Line.L90"              ,   2,       -31.1,        -0.5
"Line.L91"              ,   1,        10.4,        -9.9,         0.0,         0.0,         0.0,         0.0
"Line.L91"              ,   2,       -10.4,         9.9
"Line.L92"              ,   1,        20.7,        10.4,         0.0,         0.0,         0.0,         0.0
"Line.L92"              ,   2,       -20.7,       -10.4
"Line.L93"              ,   1,        10.4,         5.2,         0.0,         0.0,         0.0,         0.0
"Line.L93"              ,   2,       -10.4,        -5.2
"Line.L94"              ,   1,        10.4,         5.2,         0.0,         0.0,         0.0,         0.0
"Line.L94"              ,   2,       -10.4,        -5.2
"Line.L95"              ,   1,         5.2,         2.6,         0.0,         0.0,         0.0,         0.0
"Line.L95"              ,   2,        -5.2,        -2.6
"Line.L96"              ,   1,        31.1,        15.5,         0.0,         0.0,         0.0,         0.0
"Line.L96"              ,   2,       -31.1,       -15.5
"Line.L97"              ,   1,        20.7,        10.4,         0.0,         0.0,         0.0,         0.0
"Line.L97"              ,   2,       -20.7,       -10.4
"Line.L98"              ,   1,        10.4,         5.2,         0.0,         0.0,         0.0,         0.0
"Line.L98"              ,   2,       -10.4,        -5.2
"Line.L99"              ,   1,         0.0,        -0.0,         0.0,         0.0,         0.0,         0.0
"Line.L99"              ,   2,        -0.0,        -0.0
"Line.L118"             ,   1,        83.0,        41.6,         0.0,         0.0,         0.0,         0.0
"Line.L118"             ,   2,       -83.0,       -41.5
"Line.L100"             ,   1,        25.9,        13.0,         0.0,         0.0,         0.0,         0.0
"Line.L100"             ,   2,       -25.9,       -13.0
"Line.L101"             ,   1,        57.1,        28.6,         0.0,         0.0,         0.0,         0.0
"Line.L101"             ,   2,       -57.1,       -28.6
"Line.L102"             ,   1,        20.7,        10.4,         0.0,         0.0,         0.0,         0.0
"Line.L102"             ,   2,       -20.7,       -10.4
"Line.L103"             ,   1,        10.4,         5.2,         0.0,         0.0,         0.0,         0.0
"Line.L103"             ,   2,       -10.4,        -5.2
"Line.L104"             ,   1,        20.7,        10.4,         0.0,         0.0,         0.0,         0.0
"Line.L104"             ,   2,       -20.7,       -10.4
"Line.L105"             ,   1,        36.3,        18.2,         0.0,         0.0,         0.0,         0.0
"Line.L105"             ,   2,       -36.3,       -18.2
"Line.L106"             ,   1,        10.4,         5.2,         0.0,         0.0,         0.0,         0.0
"Line.L106"             ,   2,       -10.4,        -5.2
"Line.L107"             ,   1,        36.3,        18.2,         0.0,         0.0,         0.0,         0.0
"Line.L107"             ,   2,       -36.3,       -18.1
"Line.L108"             ,   1,         0.0,        -0.0,         0.0,         0.0,         0.0,         0.0
"Line.L108"             ,   2,         0.0,         0.0
"Line.L109"             ,   1,        25.9,        13.0,         0.0,         0.0,         0.0,         0.0
"Line.L109"             ,   2,       -25.9,       -13.0
"Line.L110"             ,   1,         5.2,         2.6,         0.0,         0.0,         0.0,         0.0
"Line.L110"             ,   2,        -5.2,        -2.6
"Line.L111"             ,   1,        20.7,        10.4,         0.0,         0.0,         0.0,         0.0
"Line.L111"             ,   2,       -20.7,       -10.4
"Line.L112"             ,   1,        15.5,         7.8,         0.0,         0.0,         0.0,         0.0
"Line.L112"             ,   2,       -15.5,        -7.8
"Line.L113"             ,   1,         5.2,         2.6,         0.0,         0.0,         0.0,         0.0
"Line.L113"             ,   2,        -5.2,        -2.6
"Line.L114"             ,   1,       196.1,       122.8,         0.0,         0.0,         0.0,         0.0
"Line.L114"             ,   2,      -195.9,      -122.4
"Line.L116"             ,   1,       518.1,        61.5,         0.0,         0.0,         0.0,         0.0
"Line.L116"             ,   2,      -517.0,       -59.2
"Line.L117"             ,   1,       370.8,       -25.7,         0.0,         0.0,         0.0,         0.0
"Line.L117"             ,   2,      -370.2,        26.8
"Line.SW1"              ,   1,       922.5,       306.0,         5.6,         1.9,         0.0,         0.0
"Line.SW1"              ,   2,      -922.5,      -306.0
"Line.SW2"              ,   1,       518.1,        61.5,         0.0,         0.0,         0.0,         0.0
"Line.SW2"              ,   2,      -518.1,       -61.5
"Line.SW3"              ,   1,       196.1,       122.8,         0.0,         0.0,         0.0,         0.0
"Line.SW3"              ,   2,      -196.1,      -122.8
"Line.SW4"              ,   1,       370.8,       -25.7,         0.0,         0.0,         0.0,         0.0
"Line.SW4"              ,   2,      -370.8,        25.7
"Line.SW5"              ,   1,        83.0,        41.6,         0.0,         0.0,         0.0,         0.0
"Line.SW5"              ,   2,       -83.0,       -41.6
"Line.XFM1"             ,   1,         0.0,         0.0,         0.0,         0.0,         0.0,         0.0
"Line.XFM1"             ,   2,         0.0,         0.0
"Capacitor.C83"         ,   1,         0.0,      -183.1,         0.0,         0.0,         0.0,         0.0
"Capacitor.C83"         ,   2,         0.0,         0.0
"Capacitor.C88"         ,   1,         0.0,       -15.1,         0.0,         0.0,         0.0,         0.0
"Capacitor.C88"         ,   2,         0.0,         0.0
"Capacitor.C90"         ,   1,         0.0,       -15.1,         0.0,         0.0,         0.0,         0.0
"Capacitor.C90"         ,   2,         0.0,         0.0
"Capacitor.C92"         ,   1,         0.0,       -15.1,         0.0,         0.0,         0.0,         0.0
"Capacitor.C92"         ,   2,         0.0,         0.0
"Transformer.REG1A"     ,   1,       922.5,       306.0,         0.0,         0.0,         0.0,         0.0
"Transformer.REG1A"     ,   2,      -922.5,      -306.0
"Transformer.REG2A"     ,   1,        15.5,         7.8,         0.0,         0.0,         0.0,         0.0
"Transformer.REG2A"     ,   2,       -15.5,        -7.8
"Transformer.REG3A"     ,   1,        20.7,        10.4,         0.0,         0.0,         0.0,         0.0
"Transformer.REG3A"     ,   2,       -20.7,       -10.4
"Transformer.REG4A"     ,   1,       370.8,       -25.7,         0.0,         0.0,         0.0,         0.0
"Transformer.REG4A"     ,   2,      -370.8,        25.7
"Load.S1"               ,   1,        10.4,         5.2
"Load.S2"               ,   1,         5.2,         2.6
"Load.S4"               ,   1,        10.4,         5.2
"Load.S5"               ,   1,         5.2,         2.6
"Load.S6"               ,   1,        10.4,         5.2
"Load.S7"               ,   1,         5.2,         2.6
"Load.S9"               ,   1,        10.4,         5.2
"Load.S10"              ,   1,         5.2,         2.6
"Load.S11"              ,   1,        10.4,         5.2
"Load.S12"              ,   1,         5.2,         2.6
"Load.S16"              ,   1,        10.4,         5.2
"Load.S17"              ,   1,         5.2,         2.6
"Load.S19"              ,   1,        10.4,         5.2
"Load.S20"              ,   1,        10.4,         5.2
"Load.S22"              ,   1,        10.4,         5.2
"Load.S24"              ,   1,        10.4,         5.2
"Load.S28"              ,   1,        10.4,         5.2
"Load.S29"              ,   1,        10.4,         5.2
"Load.S30"              ,   1,        10.4,         5.2
"Load.S31"              ,   1,         5.2,         2.6
"Load.S32"              ,   1,         5.2,         2.6
"Load.S33"              ,   1,        10.4,         5.2
"Load.S34"              ,   1,        10.4,         5.2
"Load.S35"              ,   1,        10.4,         5.2
"Load.S37"              ,   1,        10.4,         5.2
"Load.S38"              ,   1,         5.2,         2.6
"Load.S39"              ,   1,         5.2,         2.6
"Load.S41"              ,   1,         5.2,         2.6
"Load.S42"              ,   1,         5.2,         2.6
"Load.S43"              ,   1,        10.4,         5.2
"Load.S45"              ,   1,         5.2,         2.6
"Load.S46"              ,   1,         5.2,         2.6
"Load.S47"              ,   1,        27.2,        19.4
"Load.S48"              ,   1,        54.4,        38.8
"Load.S49"              ,   1,        36.3,        24.6
"Load.S50"              ,   1,        10.4,         5.2
"Load.S51"              ,   1,         5.2,         2.6
"Load.S52"              ,   1,        10.4,         5.2
"Load.S53"              ,   1,        10.4,         5.2
"Load.S55"              ,   1,         5.2,         2.6
"Load.S56"              ,   1,         5.2,         2.6
"Load.S58"              ,   1,         5.2,         2.6
"Load.S59"              ,   1,         5.2,         2.6
"Load.S60"              ,   1,         5.2,         2.6
"Load.S62"              ,   1,        10.4,         5.2
"Load.S63"              ,   1,        10.4,         5.2
"Load.S64"              ,   1,        19.4,         9.1
"Load.S65"              ,   1,        36.3,        25.9
"Load.S66"              ,   1,        19.4,         9.1
"Load.S68"              ,   1,         5.2,         2.6
"Load.S69"              ,   1,        10.4,         5.2
"Load.S70"              ,   1,         5.2,         2.6
"Load.S71"              ,   1,        10.4,         5.2
"Load.S73"              ,   1,        10.4,         5.2
"Load.S74"              ,   1,        10.4,         5.2
"Load.S75"              ,   1,        10.4,         5.2
"Load.S76"              ,   1,        63.5,        46.6
"Load.S77"              ,   1,        10.4,         5.2
"Load.S79"              ,   1,        10.4,         5.2
"Load.S80"              ,   1,        10.4,         5.2
"Load.S82"              ,   1,        10.4,         5.2
"Load.S83"              ,   1,         5.2,         2.6
"Load.S84"              ,   1,         5.2,         2.6
"Load.S85"              ,   1,        10.4,         5.2
"Load.S86"              ,   1,         5.2,         2.6
"Load.S87"              ,   1,        10.4,         5.2
"Load.S88"              ,   1,        10.4,         5.2
"Load.S90"              ,   1,        10.4,         5.2
"Load.S92"              ,   1,        10.4,         5.2
"Load.S94"              ,   1,        10.4,         5.2
"Load.S95"              ,   1,         5.2,         2.6
"Load.S96"              ,   1,         5.2,         2.6
"Load.S98"              ,   1,        10.4,         5.2
"Load.S99"              ,   1,        10.4,         5.2
"Load.S100"             ,   1,        10.4,         5.2
"Load.S102"             ,   1,         5.2,         2.6
"Load.S103"             ,   1,        10.4,         5.2
"Load.S104"             ,   1,        10.4,         5.2
"Load.S106"             ,   1,        10.4,         5.2
"Load.S107"             ,   1,        10.4,         5.2
"Load.S109"             ,   1,        10.4,         5.2
"Load.S111"             ,   1,         5.2,         2.6
"Load.S112"             ,   1,         5.2,         2.6
"Load.S113"             ,   1,        10.4,         5.2
"Load.S114"             ,   1,         5.2,         2.6
"Storage.BATTERY9"      ,   1,         0.0,         0.0
"Storage.BATTERY28"     ,   1,         0.0,         0.0
"Storage.BATTERY48"     ,   1,         0.0,         0.0
"Storage.BATTERY58"     ,   1,         0.0,         0.0
"Storage.BATTERY65"     ,   1,         0.0,         0.0
"Storage.BATTERY76"     ,   1,         0.0,         0.0
"Storage.BATTERY87"     ,   1,         0.0,         0.0
"Storage.BATTERY100"    ,   1,         0.0,         0.0
